[General]
network = mesh.Mesh
sim-time-limit = 100000s
simtime-resolution = 100ms
Mesh.n = 4
Mesh.nodes[..].lambda = 0.1
